%chk=ethane.chk
#p ub3lyp/lanl2dz scrf=(solvent=water) 6d 10f symmetry=none

Title Card Required

0 1
 C                  0.04777070    0.49363058    0.00000000
 C                  0.56111292    1.21958686    1.25740497
 H                  0.40442513   -0.51517942    0.00000000
 H                  0.40444354    0.99802877   -0.87365150
 H                 -1.02222930    0.49364377    0.00000000
 H                  1.63111111    1.21787979    1.25838332
 H                  0.20605636    2.22895987    1.25642758
 H                  0.20284396    0.71631886    2.13105517


