%chk=SiNanowire12.chk
#p b3lyp/lanl2dz

Title Card Required

0 1
 Si                0.00000000    0.00000000    0.00000000
 Si                3.00000000    0.00000000    0.00000000
 Si                6.00000000    0.00000000    0.00000000
 Si                9.00000000    0.00000000    0.00000000
 Si               12.00000000    0.00000000    0.00000000
 Si               15.00000000    0.00000000    0.00000000
 Si               18.00000000    0.00000000    0.00000000
 Si               21.00000000    0.00000000    0.00000000
 Si               24.00000000    0.00000000    0.00000000
 Si               27.00000000    0.00000000    0.00000000
 Si               30.00000000    0.00000000    0.00000000
 Si               33.00000000    0.00000000    0.00000000


